<?xml version="1.0" encoding="UTF-8"?>

<!-- generated on 2026-01-21 22:33:52.255679 by Eclipse SUMO osmWebWizard.py v1.25.0
<configuration>
    <net-file value="/home/hoeman/Sumo/2026-01-21-22-33-28/osm.net.xml.gz"/>
    <output-trip-file value="/home/hoeman/Sumo/2026-01-21-22-33-28/osm.passenger.trips.xml"/>
    <route-file value="/home/hoeman/Sumo/2026-01-21-22-33-28/osm.passenger.rou.xml"/>
    <prefix value="veh"/>
    <trip-attributes value="departLane=&quot;best&quot;"/>
    <fringe-start-attributes value="departSpeed=&quot;max&quot;"/>
    <vehicle-class value="passenger"/>
    <lanes value="True"/>
    <fringe-factor value="5"/>
    <allow-fringe.min-length value="1000.0"/>
    <edge-permission value="passenger"/>
    <via-edge-types value="highway.motorway,highway.motorway_link,highway.trunk_link,highway.primary_link,highway.secondary_link,highway.tertiary_link"/>
    <min-distance value="300.0"/>
    <min-distance.fringe value="10.0"/>
    <remove-loops value="True"/>
    <insertion-density value="12.0"/>
</configuration>
-->

<routes xmlns:xsi="http://www.w3.org/2001/XMLSchema-instance" xsi:noNamespaceSchemaLocation="http://sumo.dlr.de/xsd/routes_file.xsd">
    <vType id="veh_passenger" vClass="passenger"/>
    <trip id="veh0" depart="0.00" from="171826985#2" to="-1123106322#2" departLane="best" type="veh_passenger"/>
    <trip id="veh1" depart="14.25" from="-4610472#2" to="-38208961" departLane="best" type="veh_passenger"/>
    <trip id="veh2" depart="28.50" from="24914992" to="195397541#5" departLane="best" type="veh_passenger" departSpeed="max"/>
    <trip id="veh3" depart="42.74" from="492340367#1" to="-1394928034" departLane="best" type="veh_passenger"/>
    <trip id="veh4" depart="56.99" from="1127596842#0" to="-1123106322#2" departLane="best" type="veh_passenger" departSpeed="max"/>
    <trip id="veh5" depart="71.24" from="-25294728#0" to="1448698398#2" departLane="best" type="veh_passenger"/>
    <trip id="veh6" depart="85.49" from="-1133992734" to="-28251222#0" departLane="best" type="veh_passenger" departSpeed="max"/>
    <trip id="veh7" depart="99.74" from="194069450#1" to="1462815738#3" departLane="best" type="veh_passenger"/>
    <trip id="veh8" depart="113.99" from="-28251222#0" to="168940071#4" departLane="best" type="veh_passenger"/>
    <trip id="veh9" depart="128.23" from="370359204#1" to="-1102369942" departLane="best" type="veh_passenger"/>
    <trip id="veh10" depart="142.48" from="340498988#0" to="202156994#0" departLane="best" type="veh_passenger"/>
    <trip id="veh11" depart="156.73" from="1101961735#2" to="-168940071#2" departLane="best" type="veh_passenger"/>
    <trip id="veh12" depart="170.98" from="-1395674457" to="-1447255655#0" departLane="best" type="veh_passenger" departSpeed="max"/>
    <trip id="veh13" depart="185.23" from="4610476#1" to="169195795" departLane="best" type="veh_passenger"/>
    <trip id="veh14" depart="199.48" from="35578559" to="24243101" departLane="best" type="veh_passenger"/>
    <trip id="veh15" depart="213.72" from="1447255666#1" to="743631784#0" departLane="best" type="veh_passenger"/>
    <trip id="veh16" depart="227.97" from="1120993114#4" to="1462815762#1" departLane="best" type="veh_passenger"/>
    <trip id="veh17" depart="242.22" from="4412868#2" to="171826984#2" departLane="best" type="veh_passenger"/>
    <trip id="veh18" depart="256.47" from="4611698" to="15971189" departLane="best" type="veh_passenger"/>
    <trip id="veh19" depart="270.72" from="23809670#2" to="-1127596842#0" departLane="best" type="veh_passenger"/>
    <trip id="veh20" depart="284.97" from="-339201177#0" to="-66071366" departLane="best" type="veh_passenger"/>
    <trip id="veh21" depart="299.21" from="-1395008004" to="-437325047#0" departLane="best" type="veh_passenger"/>
    <trip id="veh22" depart="313.46" from="-1448681854#0" to="-51167934#0" departLane="best" type="veh_passenger"/>
    <trip id="veh23" depart="327.71" from="171826985#2" to="1121011269#2" departLane="best" type="veh_passenger"/>
    <trip id="veh24" depart="341.96" from="-4412868#2" to="54048862#2" departLane="best" type="veh_passenger"/>
    <trip id="veh25" depart="356.21" from="194069450#1" to="171826984#2" departLane="best" type="veh_passenger"/>
    <trip id="veh26" depart="370.45" from="-195397541#0" to="23852053#3" departLane="best" type="veh_passenger"/>
    <trip id="veh27" depart="384.70" from="-168940071#4" to="1126244314#0" departLane="best" type="veh_passenger"/>
    <trip id="veh28" depart="398.95" from="1462571473#3" to="195397561#6" departLane="best" type="veh_passenger"/>
    <trip id="veh29" depart="413.20" from="4610374#1" to="30721662#1" departLane="best" type="veh_passenger"/>
    <trip id="veh30" depart="427.45" from="-743631784#0" to="-492340367#1" departLane="best" type="veh_passenger"/>
    <trip id="veh31" depart="441.70" from="-24243107#1" to="541763975" departLane="best" type="veh_passenger" departSpeed="max"/>
    <trip id="veh32" depart="455.94" from="195397541#3" to="1133992734" departLane="best" type="veh_passenger"/>
    <trip id="veh33" depart="470.19" from="54048862#2" to="122820534#1" departLane="best" type="veh_passenger"/>
    <trip id="veh34" depart="484.44" from="-4412868#1" to="-4610374#0" departLane="best" type="veh_passenger"/>
    <trip id="veh35" depart="498.69" from="1462645224#1" to="-4611696" departLane="best" type="veh_passenger"/>
    <trip id="veh36" depart="512.94" from="1462815765#2" to="46140376#1" departLane="best" type="veh_passenger"/>
    <trip id="veh37" depart="527.19" from="1126237668#1" to="-35578576#4" departLane="best" type="veh_passenger"/>
    <trip id="veh38" depart="541.43" from="-1395674457" to="-1127602336" departLane="best" type="veh_passenger" departSpeed="max"/>
    <trip id="veh39" depart="555.68" from="-1462645216" to="171826984#2" departLane="best" type="veh_passenger" departSpeed="max"/>
    <trip id="veh40" depart="569.93" from="340498982#0" to="1151064397#2" departLane="best" type="veh_passenger"/>
    <trip id="veh41" depart="584.18" from="-1302053249" to="1126244314#1" departLane="best" type="veh_passenger" departSpeed="max"/>
    <trip id="veh42" depart="598.43" from="882389497" to="1462645220" departLane="best" type="veh_passenger" departSpeed="max"/>
    <trip id="veh43" depart="612.68" from="831659093#1" to="4610476#1" departLane="best" type="veh_passenger"/>
    <trip id="veh44" depart="626.92" from="-1114798610#1" to="234463931#1" departLane="best" type="veh_passenger"/>
    <trip id="veh45" depart="641.17" from="202156994#0" to="1462645230#1" departLane="best" type="veh_passenger"/>
    <trip id="veh46" depart="655.42" from="-1462645216" to="1170522567#1" departLane="best" type="veh_passenger" departSpeed="max"/>
    <trip id="veh47" depart="669.67" from="1170522572#0" to="606078071#0" departLane="best" type="veh_passenger" departSpeed="max"/>
    <trip id="veh48" depart="683.92" from="-507023458#0" to="188386313#1" departLane="best" type="veh_passenger"/>
    <trip id="veh49" depart="698.17" from="156364556#1" to="-168940071#1" departLane="best" type="veh_passenger"/>
    <trip id="veh50" depart="712.41" from="30721662#0" to="1462815737#1" departLane="best" type="veh_passenger"/>
    <trip id="veh51" depart="726.66" from="339201177#3" to="1462645224#1" departLane="best" type="veh_passenger"/>
    <trip id="veh52" depart="740.91" from="-1126465845" to="51167934#1" departLane="best" type="veh_passenger"/>
    <trip id="veh53" depart="755.16" from="461526152#1" to="43231842#1" departLane="best" type="veh_passenger"/>
    <trip id="veh54" depart="769.41" from="-55741054" to="-1159156576#0" departLane="best" type="veh_passenger" departSpeed="max"/>
    <trip id="veh55" depart="783.65" from="461526152#1" to="55741054" departLane="best" type="veh_passenger"/>
    <trip id="veh56" depart="797.90" from="-1305423286#1" to="28251222#0" departLane="best" type="veh_passenger"/>
    <trip id="veh57" depart="812.15" from="31313667#0" to="-1462815773#0" departLane="best" type="veh_passenger"/>
    <trip id="veh58" depart="826.40" from="1170522572#0" to="1462815756" departLane="best" type="veh_passenger" departSpeed="max"/>
    <trip id="veh59" depart="840.65" from="-4412868#1" to="4611693#2" departLane="best" type="veh_passenger"/>
    <trip id="veh60" depart="854.90" from="1127596842#0" to="-339201177#3" departLane="best" type="veh_passenger" departSpeed="max"/>
    <trip id="veh61" depart="869.14" from="-234463928#0" to="1077923225#0" departLane="best" type="veh_passenger"/>
    <trip id="veh62" depart="883.39" from="1149417521#1" to="1462571473#3" departLane="best" type="veh_passenger"/>
    <trip id="veh63" depart="897.64" from="-1462645221" to="-43156728#1" departLane="best" type="veh_passenger" departSpeed="max"/>
    <trip id="veh64" depart="911.89" from="1101961735#1" to="168940071#4" departLane="best" type="veh_passenger"/>
    <trip id="veh65" depart="926.14" from="-339201177#2" to="-370359204#1" departLane="best" type="veh_passenger"/>
    <trip id="veh66" depart="940.39" from="-339201177#1" to="46140376#2" departLane="best" type="veh_passenger"/>
    <trip id="veh67" depart="954.63" from="4611696" to="-1198409426#1" departLane="best" type="veh_passenger"/>
    <trip id="veh68" depart="968.88" from="-24243107#1" to="-1462815778#1" departLane="best" type="veh_passenger" departSpeed="max"/>
    <trip id="veh69" depart="983.13" from="35578559" to="-234463931#0" departLane="best" type="veh_passenger"/>
    <trip id="veh70" depart="997.38" from="-1447257521#0" to="1170522567#0" departLane="best" type="veh_passenger"/>
    <trip id="veh71" depart="1011.63" from="1127596842#0" to="136571494#1" departLane="best" type="veh_passenger" departSpeed="max"/>
    <trip id="veh72" depart="1025.88" from="24914992" to="195397541#3" departLane="best" type="veh_passenger" departSpeed="max"/>
    <trip id="veh73" depart="1040.12" from="83517332#0" to="-1447257521#0" departLane="best" type="veh_passenger" departSpeed="max"/>
    <trip id="veh74" depart="1054.37" from="1126244314#0" to="1113726463#1" departLane="best" type="veh_passenger"/>
    <trip id="veh75" depart="1068.62" from="4611698" to="-4610374#0" departLane="best" type="veh_passenger"/>
    <trip id="veh76" depart="1082.87" from="-202156991" to="120675240#2" departLane="best" type="veh_passenger" departSpeed="max"/>
    <trip id="veh77" depart="1097.12" from="1127596842#0" to="-51167934#0" departLane="best" type="veh_passenger" departSpeed="max"/>
    <trip id="veh78" depart="1111.36" from="-43231842#2" to="492340367#1" departLane="best" type="veh_passenger"/>
    <trip id="veh79" depart="1125.61" from="1159149106" to="4610476#1" departLane="best" type="veh_passenger"/>
    <trip id="veh80" depart="1139.86" from="1462571460#1" to="-1151064395#0" departLane="best" type="veh_passenger"/>
    <trip id="veh81" depart="1154.11" from="882389497" to="43231842#3" departLane="best" type="veh_passenger" departSpeed="max"/>
    <trip id="veh82" depart="1168.36" from="831659093#0" to="507023458#0" departLane="best" type="veh_passenger"/>
    <trip id="veh83" depart="1182.61" from="1198409426#2" to="-339201177#4" departLane="best" type="veh_passenger"/>
    <trip id="veh84" depart="1196.85" from="1126237668#1" to="-1159156576#0" departLane="best" type="veh_passenger"/>
    <trip id="veh85" depart="1211.10" from="1170522572#0" to="1151064397#2" departLane="best" type="veh_passenger" departSpeed="max"/>
    <trip id="veh86" depart="1225.35" from="68647306#0" to="83517336#4" departLane="best" type="veh_passenger" departSpeed="max"/>
    <trip id="veh87" depart="1239.60" from="1462571473#3" to="234463928#1" departLane="best" type="veh_passenger"/>
    <trip id="veh88" depart="1253.85" from="-168937986#0" to="-743631784#0" departLane="best" type="veh_passenger"/>
    <trip id="veh89" depart="1268.10" from="831659093#0" to="15971197" departLane="best" type="veh_passenger"/>
    <trip id="veh90" depart="1282.34" from="1447972532#1" to="25294728#0" departLane="best" type="veh_passenger"/>
    <trip id="veh91" depart="1296.59" from="-120675240#1" to="168940071#1" departLane="best" type="veh_passenger"/>
    <trip id="veh92" depart="1310.84" from="-168940071#0" to="61583424#1" departLane="best" type="veh_passenger"/>
    <trip id="veh93" depart="1325.09" from="-1395008005" to="-202817674#5" departLane="best" type="veh_passenger"/>
    <trip id="veh94" depart="1339.34" from="-339201177#5" to="-1462815757#0" departLane="best" type="veh_passenger"/>
    <trip id="veh95" depart="1353.59" from="490365295#0" to="-4610374#0" departLane="best" type="veh_passenger"/>
    <trip id="veh96" depart="1367.83" from="1462815782" to="171826984#2" departLane="best" type="veh_passenger"/>
    <trip id="veh97" depart="1382.08" from="1127596842#0" to="168940071#1" departLane="best" type="veh_passenger" departSpeed="max"/>
    <trip id="veh98" depart="1396.33" from="-23809670#0" to="23013165" departLane="best" type="veh_passenger"/>
    <trip id="veh99" depart="1410.58" from="-35578576#4" to="1133992734" departLane="best" type="veh_passenger"/>
    <trip id="veh100" depart="1424.83" from="195411604" to="-8008608" departLane="best" type="veh_passenger" departSpeed="max"/>
    <trip id="veh101" depart="1439.08" from="-751595928#1" to="25294729#1" departLane="best" type="veh_passenger"/>
    <trip id="veh102" depart="1453.32" from="-136571494#0" to="122820534#1" departLane="best" type="veh_passenger"/>
    <trip id="veh103" depart="1467.57" from="882389497" to="83517336#4" departLane="best" type="veh_passenger" departSpeed="max"/>
    <trip id="veh104" depart="1481.82" from="-136571494#0" to="-339201177#4" departLane="best" type="veh_passenger"/>
    <trip id="veh105" depart="1496.07" from="-4412868#1" to="534588621" departLane="best" type="veh_passenger"/>
    <trip id="veh106" depart="1510.32" from="461526152#1" to="4611694#1" departLane="best" type="veh_passenger"/>
    <trip id="veh107" depart="1524.56" from="1119837993" to="-168940071#4" departLane="best" type="veh_passenger"/>
    <trip id="veh108" depart="1538.81" from="4610362#2" to="202157002#0" departLane="best" type="veh_passenger"/>
    <trip id="veh109" depart="1553.06" from="195397541#2" to="-1102369942" departLane="best" type="veh_passenger"/>
    <trip id="veh110" depart="1567.31" from="195397561#3" to="541763974" departLane="best" type="veh_passenger"/>
    <trip id="veh111" depart="1581.56" from="-1462645216" to="1462815762#1" departLane="best" type="veh_passenger" departSpeed="max"/>
    <trip id="veh112" depart="1595.81" from="-4610472#0" to="169999355#1" departLane="best" type="veh_passenger"/>
    <trip id="veh113" depart="1610.05" from="24914992" to="-316746323#4" departLane="best" type="veh_passenger" departSpeed="max"/>
    <trip id="veh114" depart="1624.30" from="169999355#1" to="-474362271" departLane="best" type="veh_passenger"/>
    <trip id="veh115" depart="1638.55" from="120675240#2" to="46140376#2" departLane="best" type="veh_passenger"/>
    <trip id="veh116" depart="1652.80" from="4610472#2" to="-1395044139" departLane="best" type="veh_passenger"/>
    <trip id="veh117" depart="1667.05" from="1127596842#0" to="-51167934#0" departLane="best" type="veh_passenger" departSpeed="max"/>
    <trip id="veh118" depart="1681.30" from="-1101961735#2" to="30721660#0" departLane="best" type="veh_passenger"/>
    <trip id="veh119" depart="1695.54" from="171826985#2" to="-4611694#1" departLane="best" type="veh_passenger"/>
    <trip id="veh120" depart="1709.79" from="1133992735#0" to="-1114798610#0" departLane="best" type="veh_passenger"/>
    <trip id="veh121" depart="1724.04" from="51167934#0" to="1462815738#4" departLane="best" type="veh_passenger" departSpeed="max"/>
    <trip id="veh122" depart="1738.29" from="4610374#0" to="168937986#1" departLane="best" type="veh_passenger" departSpeed="max"/>
    <trip id="veh123" depart="1752.54" from="-55741054" to="46140376#2" departLane="best" type="veh_passenger" departSpeed="max"/>
    <trip id="veh124" depart="1766.79" from="340498982#1" to="4610476#1" departLane="best" type="veh_passenger"/>
    <trip id="veh125" depart="1781.03" from="51167934#0" to="-339201177#2" departLane="best" type="veh_passenger" departSpeed="max"/>
    <trip id="veh126" depart="1795.28" from="-43231842#2" to="-1448681854#0" departLane="best" type="veh_passenger"/>
    <trip id="veh127" depart="1809.53" from="339201177#4" to="4611698" departLane="best" type="veh_passenger"/>
    <trip id="veh128" depart="1823.78" from="1126244314#1" to="171826984#2" departLane="best" type="veh_passenger"/>
    <trip id="veh129" depart="1838.03" from="-168937986#0" to="51167934#1" departLane="best" type="veh_passenger"/>
    <trip id="veh130" depart="1852.27" from="4611698" to="751595929#0" departLane="best" type="veh_passenger"/>
    <trip id="veh131" depart="1866.52" from="370359204#3" to="4611696" departLane="best" type="veh_passenger"/>
    <trip id="veh132" depart="1880.77" from="-1133992734" to="24243107#1" departLane="best" type="veh_passenger" departSpeed="max"/>
    <trip id="veh133" depart="1895.02" from="1079495669#1" to="51167934#2" departLane="best" type="veh_passenger"/>
    <trip id="veh134" depart="1909.27" from="340498988#0" to="4610479#1" departLane="best" type="veh_passenger"/>
    <trip id="veh135" depart="1923.52" from="370359204#3" to="-492340367#0" departLane="best" type="veh_passenger"/>
    <trip id="veh136" depart="1937.76" from="339201219" to="-1462645172" departLane="best" type="veh_passenger"/>
    <trip id="veh137" depart="1952.01" from="4611707#1" to="4610472#2" departLane="best" type="veh_passenger"/>
    <trip id="veh138" depart="1966.26" from="-31313667#1" to="340498988#0" departLane="best" type="veh_passenger"/>
    <trip id="veh139" depart="1980.51" from="-1133992734" to="-23809670#1" departLane="best" type="veh_passenger" departSpeed="max"/>
    <trip id="veh140" depart="1994.76" from="1077923225#0" to="4610479#1" departLane="best" type="veh_passenger"/>
    <trip id="veh141" depart="2009.01" from="743631784#0" to="-51167934#0" departLane="best" type="veh_passenger"/>
    <trip id="veh142" depart="2023.25" from="183415643" to="1133992734" departLane="best" type="veh_passenger"/>
    <trip id="veh143" depart="2037.50" from="83517332#0" to="1462645230#1" departLane="best" type="veh_passenger" departSpeed="max"/>
    <trip id="veh144" depart="2051.75" from="61584187#1" to="-1462645230#0" departLane="best" type="veh_passenger"/>
    <trip id="veh145" depart="2066.00" from="831659093#1" to="-195397569#0" departLane="best" type="veh_passenger"/>
    <trip id="veh146" depart="2080.25" from="-1462645216" to="1170522567#1" departLane="best" type="veh_passenger" departSpeed="max"/>
    <trip id="veh147" depart="2094.50" from="24914992" to="1079495669#1" departLane="best" type="veh_passenger" departSpeed="max"/>
    <trip id="veh148" depart="2108.74" from="1463683617#0" to="1462571460#1" departLane="best" type="veh_passenger"/>
    <trip id="veh149" depart="2122.99" from="1123105979#1" to="156364570#3" departLane="best" type="veh_passenger"/>
    <trip id="veh150" depart="2137.24" from="-437325047#1" to="202817674#4" departLane="best" type="veh_passenger"/>
    <trip id="veh151" depart="2151.49" from="-1101961735#1" to="507023458#0" departLane="best" type="veh_passenger"/>
    <trip id="veh152" depart="2165.74" from="1447257522#3" to="234463931#0" departLane="best" type="veh_passenger"/>
    <trip id="veh153" depart="2179.99" from="251884680#1" to="195397541#0" departLane="best" type="veh_passenger"/>
    <trip id="veh154" depart="2194.23" from="111833185#0" to="-1198409426#1" departLane="best" type="veh_passenger" departSpeed="max"/>
    <trip id="veh155" depart="2208.48" from="195397561#4" to="1111982484" departLane="best" type="veh_passenger"/>
    <trip id="veh156" depart="2222.73" from="-66071379#0" to="4412868#1" departLane="best" type="veh_passenger"/>
    <trip id="veh157" depart="2236.98" from="24914992" to="-8008608" departLane="best" type="veh_passenger" departSpeed="max"/>
    <trip id="veh158" depart="2251.23" from="-55741054" to="1149417521#0" departLane="best" type="veh_passenger" departSpeed="max"/>
    <trip id="veh159" depart="2265.47" from="-1462645229" to="1151064397#2" departLane="best" type="veh_passenger"/>
    <trip id="veh160" depart="2279.72" from="61584187#1" to="195397561#0" departLane="best" type="veh_passenger"/>
    <trip id="veh161" depart="2293.97" from="51167934#0" to="171826984#2" departLane="best" type="veh_passenger" departSpeed="max"/>
    <trip id="veh162" depart="2308.22" from="-51167934#1" to="1462815747#1" departLane="best" type="veh_passenger"/>
    <trip id="veh163" depart="2322.47" from="-1101961735#0" to="-66071366" departLane="best" type="veh_passenger"/>
    <trip id="veh164" depart="2336.72" from="1144362247" to="15971197" departLane="best" type="veh_passenger"/>
    <trip id="veh165" depart="2350.96" from="195397541#3" to="1335908655" departLane="best" type="veh_passenger"/>
    <trip id="veh166" depart="2365.21" from="1158584613" to="-339201177#4" departLane="best" type="veh_passenger"/>
    <trip id="veh167" depart="2379.46" from="1170522572#0" to="46140376#2" departLane="best" type="veh_passenger" departSpeed="max"/>
    <trip id="veh168" depart="2393.71" from="340498982#1" to="-195397541#3" departLane="best" type="veh_passenger"/>
    <trip id="veh169" depart="2407.96" from="-1395044139" to="1462571472#1" departLane="best" type="veh_passenger"/>
    <trip id="veh170" depart="2422.21" from="169195795" to="1111982484" departLane="best" type="veh_passenger"/>
    <trip id="veh171" depart="2436.45" from="43231842#0" to="25294729#1" departLane="best" type="veh_passenger"/>
    <trip id="veh172" depart="2450.70" from="195411604" to="-43156728#1" departLane="best" type="veh_passenger" departSpeed="max"/>
    <trip id="veh173" depart="2464.95" from="-23121445#0" to="-1123106322#2" departLane="best" type="veh_passenger"/>
    <trip id="veh174" depart="2479.20" from="-43156728#1" to="1395176408" departLane="best" type="veh_passenger"/>
    <trip id="veh175" depart="2493.45" from="4610476#2" to="-120675240#0" departLane="best" type="veh_passenger"/>
    <trip id="veh176" depart="2507.70" from="-202817674#3" to="202156994#0" departLane="best" type="veh_passenger"/>
    <trip id="veh177" depart="2521.94" from="1217865061#1" to="-4610374#0" departLane="best" type="veh_passenger"/>
    <trip id="veh178" depart="2536.19" from="195397541#4" to="-1102369940#0" departLane="best" type="veh_passenger"/>
    <trip id="veh179" depart="2550.44" from="-1462645216" to="1158584613" departLane="best" type="veh_passenger" departSpeed="max"/>
    <trip id="veh180" depart="2564.69" from="-195397541#4" to="606078072#1" departLane="best" type="veh_passenger"/>
    <trip id="veh181" depart="2578.94" from="1395176409" to="-1151064395#0" departLane="best" type="veh_passenger"/>
    <trip id="veh182" depart="2593.18" from="-43231842#2" to="4412868#1" departLane="best" type="veh_passenger"/>
    <trip id="veh183" depart="2607.43" from="1170522572#0" to="339201219" departLane="best" type="veh_passenger" departSpeed="max"/>
    <trip id="veh184" depart="2621.68" from="195411604" to="831694400#0" departLane="best" type="veh_passenger" departSpeed="max"/>
    <trip id="veh185" depart="2635.93" from="492340367#0" to="171826984#2" departLane="best" type="veh_passenger"/>
    <trip id="veh186" depart="2650.18" from="24914992" to="1448698398#2" departLane="best" type="veh_passenger" departSpeed="max"/>
    <trip id="veh187" depart="2664.43" from="448810728" to="1462815747#1" departLane="best" type="veh_passenger"/>
    <trip id="veh188" depart="2678.67" from="507023458#1" to="251884680#0" departLane="best" type="veh_passenger"/>
    <trip id="veh189" depart="2692.92" from="1170522572#0" to="-4611693#1" departLane="best" type="veh_passenger" departSpeed="max"/>
    <trip id="veh190" depart="2707.17" from="-43231842#0" to="188386313#1" departLane="best" type="veh_passenger"/>
    <trip id="veh191" depart="2721.42" from="31313667#0" to="1462645216" departLane="best" type="veh_passenger"/>
    <trip id="veh192" depart="2735.67" from="168940071#4" to="-51167934#0" departLane="best" type="veh_passenger"/>
    <trip id="veh193" depart="2749.92" from="-1394928034" to="-62363402" departLane="best" type="veh_passenger"/>
    <trip id="veh194" depart="2764.16" from="-4610375#0" to="1101961735#1" departLane="best" type="veh_passenger"/>
    <trip id="veh195" depart="2778.41" from="1447972531#3" to="-1463683616#0" departLane="best" type="veh_passenger"/>
    <trip id="veh196" depart="2792.66" from="-339201177#2" to="202156994#0" departLane="best" type="veh_passenger"/>
    <trip id="veh197" depart="2806.91" from="23852053#1" to="-1171295120#1" departLane="best" type="veh_passenger"/>
    <trip id="veh198" depart="2821.16" from="1126244314#1" to="1462815738#2" departLane="best" type="veh_passenger"/>
    <trip id="veh199" depart="2835.41" from="1127595983" to="-339201177#0" departLane="best" type="veh_passenger"/>
    <trip id="veh200" depart="2849.65" from="1127596842#0" to="46140376#2" departLane="best" type="veh_passenger" departSpeed="max"/>
    <trip id="veh201" depart="2863.90" from="1462815765#2" to="202156994#0" departLane="best" type="veh_passenger"/>
    <trip id="veh202" depart="2878.15" from="4611693#1" to="284493291#0" departLane="best" type="veh_passenger"/>
    <trip id="veh203" depart="2892.40" from="1121011269#1" to="-1102369940#0" departLane="best" type="veh_passenger"/>
    <trip id="veh204" depart="2906.65" from="1114798610#0" to="25294729#1" departLane="best" type="veh_passenger"/>
    <trip id="veh205" depart="2920.90" from="4610524#0" to="606078071#0" departLane="best" type="veh_passenger"/>
    <trip id="veh206" depart="2935.14" from="1127596842#0" to="25294728#0" departLane="best" type="veh_passenger" departSpeed="max"/>
    <trip id="veh207" depart="2949.39" from="-28251222#0" to="-370359204#1" departLane="best" type="veh_passenger"/>
    <trip id="veh208" depart="2963.64" from="1149417521#1" to="-1123106322#2" departLane="best" type="veh_passenger"/>
    <trip id="veh209" depart="2977.89" from="1101961674#1" to="195397561#1" departLane="best" type="veh_passenger"/>
    <trip id="veh210" depart="2992.14" from="1126244314#0" to="-195397539" departLane="best" type="veh_passenger"/>
    <trip id="veh211" depart="3006.38" from="1170522572#0" to="-1462815773#0" departLane="best" type="veh_passenger" departSpeed="max"/>
    <trip id="veh212" depart="3020.63" from="168940071#1" to="-1123106322#2" departLane="best" type="veh_passenger"/>
    <trip id="veh213" depart="3034.88" from="1123106322#0" to="1462868947" departLane="best" type="veh_passenger" departSpeed="max"/>
    <trip id="veh214" depart="3049.13" from="-1133992734" to="188386313#1" departLane="best" type="veh_passenger" departSpeed="max"/>
    <trip id="veh215" depart="3063.38" from="-1173516145" to="1126244314#0" departLane="best" type="veh_passenger"/>
    <trip id="veh216" depart="3077.63" from="-24243107#1" to="1102369942" departLane="best" type="veh_passenger" departSpeed="max"/>
    <trip id="veh217" depart="3091.87" from="30721660#2" to="1126244314#0" departLane="best" type="veh_passenger"/>
    <trip id="veh218" depart="3106.12" from="284493291#0" to="43231842#1" departLane="best" type="veh_passenger"/>
    <trip id="veh219" depart="3120.37" from="-437325047#0" to="-136571494#0" departLane="best" type="veh_passenger"/>
    <trip id="veh220" depart="3134.62" from="-1126465845" to="1462815737#1" departLane="best" type="veh_passenger"/>
    <trip id="veh221" depart="3148.87" from="882389497" to="1119837507#1" departLane="best" type="veh_passenger" departSpeed="max"/>
    <trip id="veh222" depart="3163.12" from="194069450#1" to="31313667#2" departLane="best" type="veh_passenger"/>
    <trip id="veh223" depart="3177.36" from="195397541#0" to="25294729#1" departLane="best" type="veh_passenger"/>
    <trip id="veh224" depart="3191.61" from="-1127595983" to="-168940071#0" departLane="best" type="veh_passenger"/>
    <trip id="veh225" depart="3205.86" from="1462645225" to="-35578576#4" departLane="best" type="veh_passenger"/>
    <trip id="veh226" depart="3220.11" from="234463928#1" to="284493291#0" departLane="best" type="veh_passenger"/>
    <trip id="veh227" depart="3234.36" from="-194069450#0" to="171826984#2" departLane="best" type="veh_passenger"/>
    <trip id="veh228" depart="3248.61" from="28016312" to="-1462645230#0" departLane="best" type="veh_passenger"/>
    <trip id="veh229" depart="3262.85" from="-1462645216" to="-1123106322#2" departLane="best" type="veh_passenger" departSpeed="max"/>
    <trip id="veh230" depart="3277.10" from="-62363402" to="195397561#0" departLane="best" type="veh_passenger"/>
    <trip id="veh231" depart="3291.35" from="68647306#0" to="1133992734" departLane="best" type="veh_passenger" departSpeed="max"/>
    <trip id="veh232" depart="3305.60" from="24914992" to="-1263204721" departLane="best" type="veh_passenger" departSpeed="max"/>
    <trip id="veh233" depart="3319.85" from="202817674#5" to="171826984#2" departLane="best" type="veh_passenger"/>
    <trip id="veh234" depart="3334.09" from="-1462571460#0" to="30721660#0" departLane="best" type="veh_passenger"/>
    <trip id="veh235" depart="3348.34" from="4610479#1" to="168942727#2" departLane="best" type="veh_passenger"/>
    <trip id="veh236" depart="3362.59" from="-1462645221" to="8008608" departLane="best" type="veh_passenger" departSpeed="max"/>
    <trip id="veh237" depart="3376.84" from="339201185" to="1117432853#2" departLane="best" type="veh_passenger"/>
    <trip id="veh238" depart="3391.09" from="1133992735#0" to="1126234503#0" departLane="best" type="veh_passenger"/>
    <trip id="veh239" depart="3405.34" from="136571494#1" to="1114798610#0" departLane="best" type="veh_passenger"/>