<?xml version="1.0" encoding="UTF-8"?>

<!-- generated on 2026-01-31T21:03:29.510043+07:00 by Eclipse SUMO sumo v1_25_0+0904-59bbc76848e
<sumoConfiguration xmlns:xsi="http://www.w3.org/2001/XMLSchema-instance" xsi:noNamespaceSchemaLocation="http://sumo.dlr.de/xsd/sumoConfiguration.xsd">

    <input>
        <net-file value="maps/NJ_TurnPike/osm.net.xml.gz"/>
        <route-files value="maps/NJ_TurnPike/osm.motorcycle.trips.xml,maps/NJ_TurnPike/osm.passenger.trips.xml,maps/NJ_TurnPike/osm.truck.trips.xml"/>
        <additional-files value="maps/NJ_TurnPike/osm.poly.xml.gz,maps/NJ_TurnPike/output.add.xml"/>
    </input>

    <output>
        <tripinfo-output value="maps/NJ_TurnPike/tripinfos.xml"/>
        <statistic-output value="maps/NJ_TurnPike/stats.xml"/>
    </output>

    <processing>
        <ignore-route-errors value="true"/>
        <scale value="5.0"/>
        <tls.actuated.jam-threshold value="30"/>
    </processing>

    <routing>
        <device.rerouting.adaptation-steps value="18"/>
        <device.rerouting.adaptation-interval value="10"/>
    </routing>

    <report>
        <verbose value="true"/>
        <no-warnings value="true"/>
        <no-step-log value="true"/>
    </report>

    <emissions>
        <device.emissions.probability value="1.0"/>
    </emissions>

    <traci_server>
        <remote-port value="34197"/>
    </traci_server>

    <gui_only>
        <gui-settings-file value="maps/NJ_TurnPike/osm.view.xml"/>
        <quit-on-end value="true"/>
        <start value="true"/>
        <delay value="0"/>
    </gui_only>

</sumoConfiguration>
